##CIF_1.1

data_sm_global
#Used dictionaries
loop_
_audit_conform_dict_name
_audit_conform_dict_version
_audit_conform_dict_location
cif_core.dic 	2.4.2 	.
cif_pd.dic 		1.0.1 	.
cif_sm.dic 		0.1 	'redaktion.landolt-boernstein(at)springer.com'

#About this content and reference
_sm_credits_copyright
;PAULING FILE Multinaries Edition - 2012. SpringerMaterials Release 2014.
http://www.paulingfile.com
Unique LPF ID Number SD0304044
Project Coordinator: Shuichi Iwata
Section-Editors: Karin Cenzual (Crystal Structures), Hiroaki Okamoto (Phase 
Diagrams), Fritz Hulliger (Physical Properties)
(c) Springer & Material Phases Data System (MPDS), Switzerland & National 
Institute for Materials Science (NIMS), Japan 2014.
(Data generated pre-2002: (c) Springer & MPDS & NIMS; 
post-2001: (c) Springer & MPDS)
All Rights Reserved. Version 2014.06.
;

_audit_creation_method
;This data have been compiled from the crystallographic datasheet for 
"ZnSe Crystal Structure" 
taken from SpringerMaterials (sm_isp_sd_0304044).
;

_publ_section_references
;Andreev A.A., Bulanyi M.F., Golikov S.A., Mozharovsikii L.A.: <i>Synthesis and Some Properties of Single Crystals of the Zn<sub>x</sub>Cd<sub>1&#x2212;x</sub>S and ZnS<sub>y</sub>Se<sub>1&#x2212;y</sub> Solid Solutions</i>. (Russian) Journal of Inorganic Chemistry (translated from Zhurnal Neorganicheskoi Khimii) <b>40</b> (1995) 1039-1042.
;

#Phase classification
_sm_phase_labels				'ZnSe'
_chemical_name_mineral			'stilleite'
_sm_chemical_compound_class		'selenide'
_sm_phase_prototype				'ZnS'
_sm_pearson_symbol				'cF8'
_symmetry_Int_Tables_number		216
_sm_sample_details
;powder (determination of cell and structural parameters)
;
_sm_measurement_details
;film (determination of cell and structural parameters), 
X-rays (determination of cell and structural parameters)
;
_sm_interpretation_details
;cell parameters determined and type with fixed coordinates assigned
;

data_sm_isp_SD0304044-standardized_unitcell
#Cell Parameters
_cell_length_a					5.62
_cell_length_b					5.62
_cell_length_c					5.62
_cell_angle_alpha				90
_cell_angle_beta				90
_cell_angle_gamma				90
_sm_length_ratio_ab				1.000
_sm_length_ratio_bc				1.000
_sm_length_ratio_ca				1.000
_cell_volume 					177.5
_symmetry_space_group_name_H-M	'F-43m'
_symmetry_Int_Tables_number		216
_cell_formula_units_Z			4
_sm_cell_transformation
;No transformation from published to standardized cell parameters necessary.
;

#Atom Coordinates
loop_
_atom_site_label
_atom_site_type_symbol
_atom_site_Wyckoff_symbol
_sm_site_symmetry
_atom_site_fract_x
_atom_site_fract_y
_atom_site_fract_z
_atom_site_occupancy
_sm_coordination_number
_sm_atomic_environment_type
Se 'Se' .4c .-43m 0.25 0.25 0.25 1 4 'tetrahedron, Zn<sub>4</sub>'
Zn 'Zn' .4a .-43m 0 0 0 1 4 'tetrahedron, Se<sub>4</sub>'

_sm_atom_site_transformation
;No transformation from published to standardized cell parameters necessary.
;

data_sm_isp_SD0304044-published_cell
#Cell Parameters
_cell_length_a					5.62
_cell_length_b					5.62
_cell_length_c					5.62
_cell_angle_alpha				90
_cell_angle_beta				90
_cell_angle_gamma				90
_sm_length_ratio_ab				1.000
_sm_length_ratio_bc				1.000
_sm_length_ratio_ca				1.000
_cell_volume 					177.5
_symmetry_space_group_name_H-M	'F-43m'
_symmetry_Int_Tables_number		216
_cell_formula_units_Z			4

#Atom Coordinates
loop_
_atom_site_label
_atom_site_type_symbol
_atom_site_Wyckoff_symbol
_sm_site_symmetry
_atom_site_fract_x
_atom_site_fract_y
_atom_site_fract_z
_atom_site_occupancy
_sm_coordination_number
_sm_atomic_environment_type
Zn 'Zn' .4a .-43m 0 0 0 1 ? '?'
Se 'Se' .4c .-43m 0.25 0.25 0.25 1 ? '?'

data_sm_isp_SD0304044-niggli_reduced_cell
#Cell Parameters
_cell_length_a					3.9739
_cell_length_b					3.9739
_cell_length_c					3.9739
_cell_angle_alpha				60
_cell_angle_beta				60
_cell_angle_gamma				60
_sm_length_ratio_ab				1.000
_sm_length_ratio_bc				1.000
_sm_length_ratio_ca				1.000
_cell_volume 					44.37
_symmetry_space_group_name_H-M	''
_symmetry_Int_Tables_number		?
_cell_formula_units_Z			4

#Atom Coordinates
loop_
_atom_site_label
_atom_site_type_symbol
_atom_site_Wyckoff_symbol
_sm_site_symmetry
_atom_site_fract_x
_atom_site_fract_y
_atom_site_fract_z
_atom_site_occupancy
_sm_coordination_number
_sm_atomic_environment_type
? ? ? ? ? ? ? ? ? ?

